4
Coordinates from ORCA-job orca E -2093.052011843365
  Pa  -0.44801417179291     -0.29309597089711      1.19834036566548
  Ca  -0.68247502781531     -0.84886191099838     -2.08335963935246
  I   -0.92426914169126      2.11695805965544     -0.36380932012738
  Ca  2.65124834129947     -0.15311017775995     -0.18777140618564
