5
Coordinates from ORCA-job orca E -1149.806154103067
  Ac  1.30612931934838     -1.32426455797366     -0.98521669792480
  Si  1.58177560910191      1.07891266521456      0.70716915589637
  Sn  0.59448129605828     -3.29108238882568      1.59577646459911
  Sb  -1.65456366526442     -0.77278308190133     -1.67812067418594
  Sr  -1.13333255924415     -0.33782263651389      1.43245175161526
