4
Coordinates from ORCA-job orca E -1862.311699494473
  Cf  0.50663585926400     -0.02692042844948      0.82707075081361
  Ca  -2.26126055148037      0.18229698446769     -2.09197806597605
  N   -0.65715063914439      0.15291196849816     -0.85368504140107
  S   3.00826533136076      0.51360147548362      0.68199235656351
