5
Coordinates from ORCA-job orca E -4084.751105439937
  No  -1.06162588943256     -1.53135911400826      0.49943174475104
  Li  2.06323196639827     -0.35150878589794     -0.76377445017984
  Te  1.84287073668696     -2.51450652810182      0.84743105127591
  Se  -0.12289609276635     -0.36473961898501     -1.85239786991561
  Cl  -2.02709072088632      0.11507404699303      2.34136952406850
