5
Coordinates from ORCA-job orca E -3442.321835801828
  Np  -0.72626930550343      0.63326991935293      0.52875157942677
  Na  2.71287167120433     -0.01141924587430     -0.70625739862872
  Sr  0.60242301723537     -2.67038095117473      1.15292765815577
  Na  -0.25661229761707     -1.53222285049450     -2.40659981037714
  Br  -1.63792308531920     -1.06628687180939      2.50323797142331
