5
Coordinates from ORCA-job orca E -4057.716033310455
  No  0.75764446226428     -0.48873129026433      1.64500667133970
  N   1.07787995532276      0.38025025896254     -0.30975224515295
  Se  0.85645739855796     -3.02918549441196      0.54145424053707
  K   -0.74719247899331     -1.28151043924923     -1.68847103879015
  N   -1.25029933715170     -0.22786303503701      0.88382237206633
