4
Coordinates from ORCA-job orca E -798.386435418759
  Pa  -0.12162055354864     -0.20028572831012      0.06372165691395
  O   -0.61472218768495     -0.93900101721345     -1.57320442866833
  Be  -1.56242101124760      2.57265488480677      0.03441891415266
  Te  2.89525375248119     -0.61147813928321      0.03846385760172
