4
Coordinates from ORCA-job orca E -3208.857066616754
  Np  -0.14122279517078     -0.22790911676517     -0.20007157044570
  N   -0.61448068004491     -1.26112146310264     -1.58039293813477
  Sb  -1.32658991164738      2.75815204192224      0.27729943392568
  Se  2.67878338686307     -0.44723146205443      0.06656507465479
