5
Coordinates from ORCA-job orca E -3289.524973217694
  Am  -0.27503557779152     -1.68881848998711     -0.09592339067555
  Li  0.30802722118696      1.45499649218015     -0.24981121032481
  As  0.75327036993752     -4.13610772465611      1.00083711969790
  N   0.19635566302472     -0.26988224598638     -1.26123010166362
  S   -0.30013142624064      0.18239862937787      1.71354015130621
