4
Coordinates from ORCA-job orca E -1082.193397193598
  Cf  0.52293941195864     -0.50502236055023     -0.55002037778281
  N   -0.95568097920294     -0.98970554161873     -1.42608293532258
  Sb  -0.90515067891978      2.20584386252728      0.18596969359050
  N   1.93438224616408      0.11077403964167      0.35353361951490
